
     RDKit          3D

 22 22  0  0  0  0  0  0  0  0999 V2000
   36.0680  -28.8420   -2.4440 C   0  0  0  0  0  0  0  0  0  0  0  0
   34.9160  -29.7220   -2.9330 C   0  0  0  0  0  0  0  0  0  0  0  0
   33.7140  -28.8420   -3.2810 C   0  0  0  0  0  0  0  0  0  0  0  0
   33.7860  -28.4430   -4.7330 C   0  0  0  0  0  0  0  0  0  0  0  0
   33.8400  -29.4130   -5.7150 C   0  0  0  0  0  0  0  0  0  0  0  0
   33.9060  -29.0470   -7.0470 C   0  0  0  0  0  0  0  0  0  0  0  0
   33.9210  -27.7100   -7.3990 C   0  0  0  0  0  0  0  0  0  0  0  0
   33.8670  -26.7360   -6.4210 C   0  0  0  0  0  0  0  0  0  0  0  0
   33.8010  -27.1000   -5.0850 C   0  0  0  0  0  0  0  0  0  0  0  0
   33.7490  -26.1440   -4.1200 O   0  0  0  0  0  0  0  0  0  0  0  0
   36.0807  -28.8323   -1.3441 H   0  0  0  0  0  0  0  0  0  0  0  0
   37.0210  -29.2442   -2.8181 H   0  0  0  0  0  0  0  0  0  0  0  0
   35.9306  -27.8168   -2.8181 H   0  0  0  0  0  0  0  0  0  0  0  0
   35.2338  -30.2787   -3.8269 H   0  0  0  0  0  0  0  0  0  0  0  0
   34.6342  -30.4308   -2.1404 H   0  0  0  0  0  0  0  0  0  0  0  0
   32.7849  -29.4025   -3.1005 H   0  0  0  0  0  0  0  0  0  0  0  0
   33.7263  -27.9396   -2.6521 H   0  0  0  0  0  0  0  0  0  0  0  0
   33.8305  -30.4773   -5.4373 H   0  0  0  0  0  0  0  0  0  0  0  0
   33.9466  -29.8208   -7.8277 H   0  0  0  0  0  0  0  0  0  0  0  0
   33.9760  -27.4216   -8.4591 H   0  0  0  0  0  0  0  0  0  0  0  0
   33.8764  -25.6725   -6.7020 H   0  0  0  0  0  0  0  0  0  0  0  0
   34.5840  -26.0110   -3.6510 H   0  0  0  0  0  0  0  0  0  0  0  0
  1  2  1  0
  2  3  1  0
  3  4  1  0
  4  5  2  0
  5  6  1  0
  6  7  2  0
  7  8  1  0
  8  9  2  0
  9 10  1  0
  9  4  1  0
  1 11  1  0
  1 12  1  0
  1 13  1  0
  2 14  1  0
  2 15  1  0
  3 16  1  0
  3 17  1  0
  5 18  1  0
  6 19  1  0
  7 20  1  0
  8 21  1  0
 10 22  1  0
M  END
>  <meeko>  (1) 
{"is_sidechain": false}

$$$$

     RDKit          3D

 22 22  0  0  0  0  0  0  0  0999 V2000
   33.9060  -29.6690   -5.8330 C   0  0  0  0  0  0  0  0  0  0  0  0
   33.9980  -28.9440   -7.1770 C   0  0  0  0  0  0  0  0  0  0  0  0
   33.7140  -27.4550   -6.9740 C   0  0  0  0  0  0  0  0  0  0  0  0
   34.9310  -26.7870   -6.3860 C   0  0  0  0  0  0  0  0  0  0  0  0
   36.1070  -26.7340   -7.1080 C   0  0  0  0  0  0  0  0  0  0  0  0
   37.2230  -26.1220   -6.5680 C   0  0  0  0  0  0  0  0  0  0  0  0
   37.1650  -25.5620   -5.3050 C   0  0  0  0  0  0  0  0  0  0  0  0
   35.9910  -25.6120   -4.5790 C   0  0  0  0  0  0  0  0  0  0  0  0
   34.8700  -26.2260   -5.1180 C   0  0  0  0  0  0  0  0  0  0  0  0
   33.7140  -26.2760   -4.4060 O   0  0  0  0  0  0  0  0  0  0  0  0
   33.9986  -28.9389   -5.0155 H   0  0  0  0  0  0  0  0  0  0  0  0
   32.9356  -30.1816   -5.7586 H   0  0  0  0  0  0  0  0  0  0  0  0
   34.7176  -30.4078   -5.7586 H   0  0  0  0  0  0  0  0  0  0  0  0
   35.0081  -29.0711   -7.5937 H   0  0  0  0  0  0  0  0  0  0  0  0
   33.2583  -29.3667   -7.8728 H   0  0  0  0  0  0  0  0  0  0  0  0
   33.4736  -26.9922   -7.9425 H   0  0  0  0  0  0  0  0  0  0  0  0
   32.8622  -27.3342   -6.2885 H   0  0  0  0  0  0  0  0  0  0  0  0
   36.1559  -27.1788   -8.1129 H   0  0  0  0  0  0  0  0  0  0  0  0
   38.1590  -26.0805   -7.1443 H   0  0  0  0  0  0  0  0  0  0  0  0
   38.0548  -25.0762   -4.8780 H   0  0  0  0  0  0  0  0  0  0  0  0
   35.9451  -25.1655   -3.5747 H   0  0  0  0  0  0  0  0  0  0  0  0
   33.6850  -25.6660   -3.6560 H   0  0  0  0  0  0  0  0  0  0  0  0
  1  2  1  0
  2  3  1  0
  3  4  1  0
  4  5  2  0
  5  6  1  0
  6  7  2  0
  7  8  1  0
  8  9  2  0
  9 10  1  0
  9  4  1  0
  1 11  1  0
  1 12  1  0
  1 13  1  0
  2 14  1  0
  2 15  1  0
  3 16  1  0
  3 17  1  0
  5 18  1  0
  6 19  1  0
  7 20  1  0
  8 21  1  0
 10 22  1  0
M  END
>  <meeko>  (2) 
{"is_sidechain": false}

$$$$

     RDKit          3D

 22 22  0  0  0  0  0  0  0  0999 V2000
   35.6160  -22.5810   -3.2140 C   0  0  0  0  0  0  0  0  0  0  0  0
   34.9210  -23.9290   -3.0190 C   0  0  0  0  0  0  0  0  0  0  0  0
   35.5760  -24.9760   -3.9220 C   0  0  0  0  0  0  0  0  0  0  0  0
   35.0800  -26.3480   -3.5430 C   0  0  0  0  0  0  0  0  0  0  0  0
   35.5320  -26.9510   -2.3860 C   0  0  0  0  0  0  0  0  0  0  0  0
   35.0760  -28.2100   -2.0380 C   0  0  0  0  0  0  0  0  0  0  0  0
   34.1700  -28.8680   -2.8480 C   0  0  0  0  0  0  0  0  0  0  0  0
   33.7140  -28.2690   -4.0070 C   0  0  0  0  0  0  0  0  0  0  0  0
   34.1690  -27.0070   -4.3580 C   0  0  0  0  0  0  0  0  0  0  0  0
   33.7230  -26.4150   -5.4970 O   0  0  0  0  0  0  0  0  0  0  0  0
   35.8433  -22.1402   -2.2321 H   0  0  0  0  0  0  0  0  0  0  0  0
   36.5506  -22.7281   -3.7751 H   0  0  0  0  0  0  0  0  0  0  0  0
   34.9541  -21.9050   -3.7751 H   0  0  0  0  0  0  0  0  0  0  0  0
   35.0143  -24.2410   -1.9683 H   0  0  0  0  0  0  0  0  0  0  0  0
   33.8567  -23.8339   -3.2802 H   0  0  0  0  0  0  0  0  0  0  0  0
   35.3168  -24.7693   -4.9708 H   0  0  0  0  0  0  0  0  0  0  0  0
   36.6683  -24.9343   -3.7990 H   0  0  0  0  0  0  0  0  0  0  0  0
   36.2548  -26.4302   -1.7408 H   0  0  0  0  0  0  0  0  0  0  0  0
   35.4353  -28.6882   -1.1148 H   0  0  0  0  0  0  0  0  0  0  0  0
   33.8113  -29.8700   -2.5698 H   0  0  0  0  0  0  0  0  0  0  0  0
   32.9912  -28.7925   -4.6501 H   0  0  0  0  0  0  0  0  0  0  0  0
   32.9050  -25.9110   -5.3850 H   0  0  0  0  0  0  0  0  0  0  0  0
  1  2  1  0
  2  3  1  0
  3  4  1  0
  4  5  2  0
  5  6  1  0
  6  7  2  0
  7  8  1  0
  8  9  2  0
  9 10  1  0
  9  4  1  0
  1 11  1  0
  1 12  1  0
  1 13  1  0
  2 14  1  0
  2 15  1  0
  3 16  1  0
  3 17  1  0
  5 18  1  0
  6 19  1  0
  7 20  1  0
  8 21  1  0
 10 22  1  0
M  END
>  <meeko>  (3) 
{"is_sidechain": false}

$$$$

     RDKit          3D

 22 22  0  0  0  0  0  0  0  0999 V2000
   35.1560  -22.8350   -3.4230 C   0  0  0  0  0  0  0  0  0  0  0  0
   36.4790  -23.5810   -3.6070 C   0  0  0  0  0  0  0  0  0  0  0  0
   36.2480  -25.0820   -3.4210 C   0  0  0  0  0  0  0  0  0  0  0  0
   36.0030  -25.7220   -4.7630 C   0  0  0  0  0  0  0  0  0  0  0  0
   37.0390  -25.8530   -5.6670 C   0  0  0  0  0  0  0  0  0  0  0  0
   36.8140  -26.4410   -6.8980 C   0  0  0  0  0  0  0  0  0  0  0  0
   35.5520  -26.8970   -7.2280 C   0  0  0  0  0  0  0  0  0  0  0  0
   34.5120  -26.7700   -6.3280 C   0  0  0  0  0  0  0  0  0  0  0  0
   34.7350  -26.1800   -5.0920 C   0  0  0  0  0  0  0  0  0  0  0  0
   33.7140  -26.0530   -4.2050 O   0  0  0  0  0  0  0  0  0  0  0  0
   34.9476  -22.7175   -2.3493 H   0  0  0  0  0  0  0  0  0  0  0  0
   35.2257  -21.8432   -3.8937 H   0  0  0  0  0  0  0  0  0  0  0  0
   34.3435  -23.4079   -3.8937 H   0  0  0  0  0  0  0  0  0  0  0  0
   36.8687  -23.3925   -4.6182 H   0  0  0  0  0  0  0  0  0  0  0  0
   37.2065  -23.2268   -2.8618 H   0  0  0  0  0  0  0  0  0  0  0  0
   37.1358  -25.5348   -2.9553 H   0  0  0  0  0  0  0  0  0  0  0  0
   35.3732  -25.2411   -2.7734 H   0  0  0  0  0  0  0  0  0  0  0  0
   38.0441  -25.4892   -5.4074 H   0  0  0  0  0  0  0  0  0  0  0  0
   37.6409  -26.5460   -7.6158 H   0  0  0  0  0  0  0  0  0  0  0  0
   35.3754  -27.3619   -8.2091 H   0  0  0  0  0  0  0  0  0  0  0  0
   33.5085  -27.1360   -6.5906 H   0  0  0  0  0  0  0  0  0  0  0  0
   33.7380  -25.2340   -3.6910 H   0  0  0  0  0  0  0  0  0  0  0  0
  1  2  1  0
  2  3  1  0
  3  4  1  0
  4  5  2  0
  5  6  1  0
  6  7  2  0
  7  8  1  0
  8  9  2  0
  9 10  1  0
  9  4  1  0
  1 11  1  0
  1 12  1  0
  1 13  1  0
  2 14  1  0
  2 15  1  0
  3 16  1  0
  3 17  1  0
  5 18  1  0
  6 19  1  0
  7 20  1  0
  8 21  1  0
 10 22  1  0
M  END
>  <meeko>  (4) 
{"is_sidechain": false}

$$$$

     RDKit          3D

 22 22  0  0  0  0  0  0  0  0999 V2000
   36.9420  -26.1450   -3.7000 C   0  0  0  0  0  0  0  0  0  0  0  0
   35.8650  -25.2380   -4.2960 C   0  0  0  0  0  0  0  0  0  0  0  0
   34.4820  -25.8140   -3.9840 C   0  0  0  0  0  0  0  0  0  0  0  0
   34.2240  -27.0080   -4.8660 C   0  0  0  0  0  0  0  0  0  0  0  0
   34.2580  -26.8730   -6.2410 C   0  0  0  0  0  0  0  0  0  0  0  0
   34.0210  -27.9690   -7.0500 C   0  0  0  0  0  0  0  0  0  0  0  0
   33.7490  -29.2010   -6.4860 C   0  0  0  0  0  0  0  0  0  0  0  0
   33.7140  -29.3420   -5.1130 C   0  0  0  0  0  0  0  0  0  0  0  0
   33.9510  -28.2450   -4.2990 C   0  0  0  0  0  0  0  0  0  0  0  0
   33.9170  -28.3800   -2.9470 O   0  0  0  0  0  0  0  0  0  0  0  0
   36.8911  -26.1021   -2.6020 H   0  0  0  0  0  0  0  0  0  0  0  0
   36.7763  -27.1797   -4.0346 H   0  0  0  0  0  0  0  0  0  0  0  0
   37.9334  -25.8057   -4.0346 H   0  0  0  0  0  0  0  0  0  0  0  0
   35.9501  -24.2320   -3.8592 H   0  0  0  0  0  0  0  0  0  0  0  0
   35.9992  -25.1774   -5.3861 H   0  0  0  0  0  0  0  0  0  0  0  0
   34.4429  -26.1224   -2.9288 H   0  0  0  0  0  0  0  0  0  0  0  0
   33.7152  -25.0478   -4.1710 H   0  0  0  0  0  0  0  0  0  0  0  0
   34.4737  -25.8932   -6.6920 H   0  0  0  0  0  0  0  0  0  0  0  0
   34.0490  -27.8601   -8.1442 H   0  0  0  0  0  0  0  0  0  0  0  0
   33.5600  -30.0709   -7.1322 H   0  0  0  0  0  0  0  0  0  0  0  0
   33.4984  -30.3235   -4.6655 H   0  0  0  0  0  0  0  0  0  0  0  0
   33.2990  -29.0550   -2.6340 H   0  0  0  0  0  0  0  0  0  0  0  0
  1  2  1  0
  2  3  1  0
  3  4  1  0
  4  5  2  0
  5  6  1  0
  6  7  2  0
  7  8  1  0
  8  9  2  0
  9 10  1  0
  9  4  1  0
  1 11  1  0
  1 12  1  0
  1 13  1  0
  2 14  1  0
  2 15  1  0
  3 16  1  0
  3 17  1  0
  5 18  1  0
  6 19  1  0
  7 20  1  0
  8 21  1  0
 10 22  1  0
M  END
>  <meeko>  (5) 
{"is_sidechain": false}

$$$$

     RDKit          3D

 22 22  0  0  0  0  0  0  0  0999 V2000
   33.7140  -22.1000   -2.2810 C   0  0  0  0  0  0  0  0  0  0  0  0
   34.7460  -22.7360   -3.2140 C   0  0  0  0  0  0  0  0  0  0  0  0
   34.8460  -24.2340   -2.9180 C   0  0  0  0  0  0  0  0  0  0  0  0
   35.5800  -24.9200   -4.0410 C   0  0  0  0  0  0  0  0  0  0  0  0
   36.8590  -24.5200   -4.3770 C   0  0  0  0  0  0  0  0  0  0  0  0
   37.5330  -25.1500   -5.4070 C   0  0  0  0  0  0  0  0  0  0  0  0
   36.9280  -26.1790   -6.1040 C   0  0  0  0  0  0  0  0  0  0  0  0
   35.6500  -26.5830   -5.7730 C   0  0  0  0  0  0  0  0  0  0  0  0
   34.9720  -25.9530   -4.7400 C   0  0  0  0  0  0  0  0  0  0  0  0
   33.7140  -26.3480   -4.4120 O   0  0  0  0  0  0  0  0  0  0  0  0
   34.0051  -22.2794   -1.2355 H   0  0  0  0  0  0  0  0  0  0  0  0
   33.6686  -21.0170   -2.4683 H   0  0  0  0  0  0  0  0  0  0  0  0
   32.7262  -22.5462   -2.4683 H   0  0  0  0  0  0  0  0  0  0  0  0
   34.4357  -22.5886   -4.2590 H   0  0  0  0  0  0  0  0  0  0  0  0
   35.7264  -22.2640   -3.0527 H   0  0  0  0  0  0  0  0  0  0  0  0
   35.3929  -24.3859   -1.9758 H   0  0  0  0  0  0  0  0  0  0  0  0
   33.8351  -24.6582   -2.8276 H   0  0  0  0  0  0  0  0  0  0  0  0
   37.3414  -23.7000   -3.8249 H   0  0  0  0  0  0  0  0  0  0  0  0
   38.5521  -24.8318   -5.6721 H   0  0  0  0  0  0  0  0  0  0  0  0
   37.4659  -26.6770   -6.9241 H   0  0  0  0  0  0  0  0  0  0  0  0
   35.1704  -27.4030   -6.3275 H   0  0  0  0  0  0  0  0  0  0  0  0
   33.1040  -26.3850   -5.1610 H   0  0  0  0  0  0  0  0  0  0  0  0
  1  2  1  0
  2  3  1  0
  3  4  1  0
  4  5  2  0
  5  6  1  0
  6  7  2  0
  7  8  1  0
  8  9  2  0
  9 10  1  0
  9  4  1  0
  1 11  1  0
  1 12  1  0
  1 13  1  0
  2 14  1  0
  2 15  1  0
  3 16  1  0
  3 17  1  0
  5 18  1  0
  6 19  1  0
  7 20  1  0
  8 21  1  0
 10 22  1  0
M  END
>  <meeko>  (6) 
{"is_sidechain": false}

$$$$

     RDKit          3D

 22 22  0  0  0  0  0  0  0  0999 V2000
   34.4420  -26.3780   -4.4560 C   0  0  0  0  0  0  0  0  0  0  0  0
   35.6510  -26.2070   -3.5330 C   0  0  0  0  0  0  0  0  0  0  0  0
   35.9820  -24.7200   -3.3960 C   0  0  0  0  0  0  0  0  0  0  0  0
   35.2820  -24.1590   -2.1850 C   0  0  0  0  0  0  0  0  0  0  0  0
   35.5580  -24.6640   -0.9300 C   0  0  0  0  0  0  0  0  0  0  0  0
   34.9160  -24.1490    0.1810 C   0  0  0  0  0  0  0  0  0  0  0  0
   33.9940  -23.1290    0.0380 C   0  0  0  0  0  0  0  0  0  0  0  0
   33.7140  -22.6190   -1.2150 C   0  0  0  0  0  0  0  0  0  0  0  0
   34.3570  -23.1340   -2.3310 C   0  0  0  0  0  0  0  0  0  0  0  0
   34.0830  -22.6350   -3.5650 O   0  0  0  0  0  0  0  0  0  0  0  0
   33.5332  -26.5065   -3.8498 H   0  0  0  0  0  0  0  0  0  0  0  0
   34.3362  -25.4859   -5.0908 H   0  0  0  0  0  0  0  0  0  0  0  0
   34.5878  -27.2645   -5.0908 H   0  0  0  0  0  0  0  0  0  0  0  0
   35.4175  -26.6234   -2.5420 H   0  0  0  0  0  0  0  0  0  0  0  0
   36.5154  -26.7372   -3.9592 H   0  0  0  0  0  0  0  0  0  0  0  0
   37.0689  -24.5953   -3.2818 H   0  0  0  0  0  0  0  0  0  0  0  0
   35.6440  -24.1847   -4.2956 H   0  0  0  0  0  0  0  0  0  0  0  0
   36.2896  -25.4772   -0.8138 H   0  0  0  0  0  0  0  0  0  0  0  0
   35.1392  -24.5515    1.1801 H   0  0  0  0  0  0  0  0  0  0  0  0
   33.4826  -22.7229    0.9231 H   0  0  0  0  0  0  0  0  0  0  0  0
   32.9821  -21.8056   -1.3276 H   0  0  0  0  0  0  0  0  0  0  0  0
   34.2960  -21.6970   -3.6670 H   0  0  0  0  0  0  0  0  0  0  0  0
  1  2  1  0
  2  3  1  0
  3  4  1  0
  4  5  2  0
  5  6  1  0
  6  7  2  0
  7  8  1  0
  8  9  2  0
  9 10  1  0
  9  4  1  0
  1 11  1  0
  1 12  1  0
  1 13  1  0
  2 14  1  0
  2 15  1  0
  3 16  1  0
  3 17  1  0
  5 18  1  0
  6 19  1  0
  7 20  1  0
  8 21  1  0
 10 22  1  0
M  END
>  <meeko>  (7) 
{"is_sidechain": false}

$$$$
