
     RDKit          3D

 22 22  0  0  0  0  0  0  0  0999 V2000
   23.9550  -24.4090   -0.1080 C   0  0  0  0  0  0  0  0  0  0  0  0
   23.9740  -24.7970   -1.5870 C   0  0  0  0  0  0  0  0  0  0  0  0
   22.5560  -24.7100   -2.1550 C   0  0  0  0  0  0  0  0  0  0  0  0
   22.4800  -25.4980   -3.4380 C   0  0  0  0  0  0  0  0  0  0  0  0
   22.0290  -26.8030   -3.4230 C   0  0  0  0  0  0  0  0  0  0  0  0
   21.9600  -27.5250   -4.6000 C   0  0  0  0  0  0  0  0  0  0  0  0
   22.3420  -26.9430   -5.7940 C   0  0  0  0  0  0  0  0  0  0  0  0
   22.7940  -25.6380   -5.8160 C   0  0  0  0  0  0  0  0  0  0  0  0
   22.8650  -24.9120   -4.6360 C   0  0  0  0  0  0  0  0  0  0  0  0
   23.3090  -23.6280   -4.6540 O   0  0  0  0  0  0  0  0  0  0  0  0
   23.9995  -25.3178    0.5101 H   0  0  0  0  0  0  0  0  0  0  0  0
   24.8230  -23.7711    0.1149 H   0  0  0  0  0  0  0  0  0  0  0  0
   23.0288  -23.8590    0.1149 H   0  0  0  0  0  0  0  0  0  0  0  0
   24.6326  -24.1096   -2.1380 H   0  0  0  0  0  0  0  0  0  0  0  0
   24.3485  -25.8260   -1.6915 H   0  0  0  0  0  0  0  0  0  0  0  0
   21.8432  -25.1248   -1.4271 H   0  0  0  0  0  0  0  0  0  0  0  0
   22.3048  -23.6579   -2.3551 H   0  0  0  0  0  0  0  0  0  0  0  0
   21.7244  -27.2684   -2.4740 H   0  0  0  0  0  0  0  0  0  0  0  0
   21.6004  -28.5645   -4.5862 H   0  0  0  0  0  0  0  0  0  0  0  0
   22.2859  -27.5203   -6.7287 H   0  0  0  0  0  0  0  0  0  0  0  0
   23.0970  -25.1755   -6.7669 H   0  0  0  0  0  0  0  0  0  0  0  0
   24.2600  -23.5380   -4.5060 H   0  0  0  0  0  0  0  0  0  0  0  0
  1  2  1  0
  2  3  1  0
  3  4  1  0
  4  5  2  0
  5  6  1  0
  6  7  2  0
  7  8  1  0
  8  9  2  0
  9 10  1  0
  9  4  1  0
  1 11  1  0
  1 12  1  0
  1 13  1  0
  2 14  1  0
  2 15  1  0
  3 16  1  0
  3 17  1  0
  5 18  1  0
  6 19  1  0
  7 20  1  0
  8 21  1  0
 10 22  1  0
M  END
>  <meeko>  (1) 
{"is_sidechain": false}

$$$$

     RDKit          3D

 22 22  0  0  0  0  0  0  0  0999 V2000
   24.1470  -24.6260    0.0370 C   0  0  0  0  0  0  0  0  0  0  0  0
   24.1140  -24.6490   -1.4920 C   0  0  0  0  0  0  0  0  0  0  0  0
   22.6610  -24.6430   -1.9710 C   0  0  0  0  0  0  0  0  0  0  0  0
   22.5550  -25.4140   -3.2610 C   0  0  0  0  0  0  0  0  0  0  0  0
   23.2420  -24.9880   -4.3810 C   0  0  0  0  0  0  0  0  0  0  0  0
   23.1440  -25.6960   -5.5650 C   0  0  0  0  0  0  0  0  0  0  0  0
   22.3580  -26.8310   -5.6320 C   0  0  0  0  0  0  0  0  0  0  0  0
   21.6690  -27.2620   -4.5150 C   0  0  0  0  0  0  0  0  0  0  0  0
   21.7650  -26.5540   -3.3260 C   0  0  0  0  0  0  0  0  0  0  0  0
   21.0880  -26.9760   -2.2270 O   0  0  0  0  0  0  0  0  0  0  0  0
   23.3044  -25.2133    0.4308 H   0  0  0  0  0  0  0  0  0  0  0  0
   25.0937  -25.0609    0.3899 H   0  0  0  0  0  0  0  0  0  0  0  0
   24.0666  -23.5873    0.3899 H   0  0  0  0  0  0  0  0  0  0  0  0
   24.6327  -23.7614   -1.8833 H   0  0  0  0  0  0  0  0  0  0  0  0
   24.6162  -25.5575   -1.8559 H   0  0  0  0  0  0  0  0  0  0  0  0
   22.0217  -25.1130   -1.2092 H   0  0  0  0  0  0  0  0  0  0  0  0
   22.3331  -23.6060   -2.1353 H   0  0  0  0  0  0  0  0  0  0  0  0
   23.8677  -24.0847   -4.3312 H   0  0  0  0  0  0  0  0  0  0  0  0
   23.6928  -25.3551   -6.4553 H   0  0  0  0  0  0  0  0  0  0  0  0
   22.2811  -27.3914   -6.5754 H   0  0  0  0  0  0  0  0  0  0  0  0
   21.0446  -28.1661   -4.5683 H   0  0  0  0  0  0  0  0  0  0  0  0
   20.1830  -26.6400   -2.1680 H   0  0  0  0  0  0  0  0  0  0  0  0
  1  2  1  0
  2  3  1  0
  3  4  1  0
  4  5  2  0
  5  6  1  0
  6  7  2  0
  7  8  1  0
  8  9  2  0
  9 10  1  0
  9  4  1  0
  1 11  1  0
  1 12  1  0
  1 13  1  0
  2 14  1  0
  2 15  1  0
  3 16  1  0
  3 17  1  0
  5 18  1  0
  6 19  1  0
  7 20  1  0
  8 21  1  0
 10 22  1  0
M  END
>  <meeko>  (2) 
{"is_sidechain": false}

$$$$

     RDKit          3D

 22 22  0  0  0  0  0  0  0  0999 V2000
   21.9210  -27.1460   -5.8820 C   0  0  0  0  0  0  0  0  0  0  0  0
   22.6910  -26.9130   -4.5810 C   0  0  0  0  0  0  0  0  0  0  0  0
   23.1700  -25.4610   -4.5250 C   0  0  0  0  0  0  0  0  0  0  0  0
   23.5130  -25.1000   -3.1020 C   0  0  0  0  0  0  0  0  0  0  0  0
   24.8300  -24.8920   -2.7390 C   0  0  0  0  0  0  0  0  0  0  0  0
   25.1440  -24.5610   -1.4340 C   0  0  0  0  0  0  0  0  0  0  0  0
   24.1420  -24.4380   -0.4890 C   0  0  0  0  0  0  0  0  0  0  0  0
   22.8240  -24.6440   -0.8470 C   0  0  0  0  0  0  0  0  0  0  0  0
   22.5060  -24.9770   -2.1550 C   0  0  0  0  0  0  0  0  0  0  0  0
   21.2100  -25.1810   -2.5100 O   0  0  0  0  0  0  0  0  0  0  0  0
   20.8922  -27.4573   -5.6484 H   0  0  0  0  0  0  0  0  0  0  0  0
   21.8984  -26.2145   -6.4666 H   0  0  0  0  0  0  0  0  0  0  0  0
   22.4187  -27.9338   -6.4666 H   0  0  0  0  0  0  0  0  0  0  0  0
   22.0321  -27.1151   -3.7237 H   0  0  0  0  0  0  0  0  0  0  0  0
   23.5593  -27.5873   -4.5430 H   0  0  0  0  0  0  0  0  0  0  0  0
   24.0619  -25.3444   -5.1581 H   0  0  0  0  0  0  0  0  0  0  0  0
   22.3723  -24.7972   -4.8898 H   0  0  0  0  0  0  0  0  0  0  0  0
   25.6289  -24.9898   -3.4888 H   0  0  0  0  0  0  0  0  0  0  0  0
   26.1928  -24.3952   -1.1468 H   0  0  0  0  0  0  0  0  0  0  0  0
   24.3949  -24.1758    0.5489 H   0  0  0  0  0  0  0  0  0  0  0  0
   22.0273  -24.5440   -0.0952 H   0  0  0  0  0  0  0  0  0  0  0  0
   20.9060  -26.0910   -2.3850 H   0  0  0  0  0  0  0  0  0  0  0  0
  1  2  1  0
  2  3  1  0
  3  4  1  0
  4  5  2  0
  5  6  1  0
  6  7  2  0
  7  8  1  0
  8  9  2  0
  9 10  1  0
  9  4  1  0
  1 11  1  0
  1 12  1  0
  1 13  1  0
  2 14  1  0
  2 15  1  0
  3 16  1  0
  3 17  1  0
  5 18  1  0
  6 19  1  0
  7 20  1  0
  8 21  1  0
 10 22  1  0
M  END
>  <meeko>  (3) 
{"is_sidechain": false}

$$$$

     RDKit          3D

 22 22  0  0  0  0  0  0  0  0999 V2000
   21.3540  -27.6190   -3.9190 C   0  0  0  0  0  0  0  0  0  0  0  0
   21.0100  -26.8030   -2.6720 C   0  0  0  0  0  0  0  0  0  0  0  0
   21.3670  -25.3340   -2.9090 C   0  0  0  0  0  0  0  0  0  0  0  0
   22.6760  -25.0210   -2.2310 C   0  0  0  0  0  0  0  0  0  0  0  0
   22.7010  -24.7070   -0.8860 C   0  0  0  0  0  0  0  0  0  0  0  0
   23.9030  -24.4200   -0.2650 C   0  0  0  0  0  0  0  0  0  0  0  0
   25.0810  -24.4430   -0.9880 C   0  0  0  0  0  0  0  0  0  0  0  0
   25.0620  -24.7560   -2.3330 C   0  0  0  0  0  0  0  0  0  0  0  0
   23.8580  -25.0450   -2.9590 C   0  0  0  0  0  0  0  0  0  0  0  0
   23.8360  -25.3530   -4.2820 O   0  0  0  0  0  0  0  0  0  0  0  0
   21.7649  -28.5938   -3.6175 H   0  0  0  0  0  0  0  0  0  0  0  0
   20.4446  -27.7739   -4.5182 H   0  0  0  0  0  0  0  0  0  0  0  0
   22.0998  -27.0762   -4.5182 H   0  0  0  0  0  0  0  0  0  0  0  0
   19.9336  -26.8895   -2.4626 H   0  0  0  0  0  0  0  0  0  0  0  0
   21.5824  -27.1856   -1.8141 H   0  0  0  0  0  0  0  0  0  0  0  0
   21.4598  -25.1486   -3.9893 H   0  0  0  0  0  0  0  0  0  0  0  0
   20.5758  -24.6922   -2.4942 H   0  0  0  0  0  0  0  0  0  0  0  0
   21.7648  -24.6852   -0.3088 H   0  0  0  0  0  0  0  0  0  0  0  0
   23.9217  -24.1729    0.8067 H   0  0  0  0  0  0  0  0  0  0  0  0
   26.0348  -24.2117   -0.4913 H   0  0  0  0  0  0  0  0  0  0  0  0
   26.0001  -24.7761   -2.9071 H   0  0  0  0  0  0  0  0  0  0  0  0
   24.6990  -25.2940   -4.7150 H   0  0  0  0  0  0  0  0  0  0  0  0
  1  2  1  0
  2  3  1  0
  3  4  1  0
  4  5  2  0
  5  6  1  0
  6  7  2  0
  7  8  1  0
  8  9  2  0
  9 10  1  0
  9  4  1  0
  1 11  1  0
  1 12  1  0
  1 13  1  0
  2 14  1  0
  2 15  1  0
  3 16  1  0
  3 17  1  0
  5 18  1  0
  6 19  1  0
  7 20  1  0
  8 21  1  0
 10 22  1  0
M  END
>  <meeko>  (4) 
{"is_sidechain": false}

$$$$

     RDKit          3D

 22 22  0  0  0  0  0  0  0  0999 V2000
   22.0560  -27.2120   -5.4540 C   0  0  0  0  0  0  0  0  0  0  0  0
   22.3780  -26.7530   -4.0310 C   0  0  0  0  0  0  0  0  0  0  0  0
   23.1910  -25.4590   -4.0840 C   0  0  0  0  0  0  0  0  0  0  0  0
   23.4090  -24.9440   -2.6840 C   0  0  0  0  0  0  0  0  0  0  0  0
   22.3500  -24.4240   -1.9650 C   0  0  0  0  0  0  0  0  0  0  0  0
   22.5510  -23.9520   -0.6810 C   0  0  0  0  0  0  0  0  0  0  0  0
   23.8100  -23.9990   -0.1130 C   0  0  0  0  0  0  0  0  0  0  0  0
   24.8730  -24.5190   -0.8270 C   0  0  0  0  0  0  0  0  0  0  0  0
   24.6750  -24.9930   -2.1150 C   0  0  0  0  0  0  0  0  0  0  0  0
   25.7180  -25.5040   -2.8200 O   0  0  0  0  0  0  0  0  0  0  0  0
   21.4247  -28.1119   -5.4150 H   0  0  0  0  0  0  0  0  0  0  0  0
   21.5206  -26.4113   -5.9852 H   0  0  0  0  0  0  0  0  0  0  0  0
   22.9911  -27.4429   -5.9852 H   0  0  0  0  0  0  0  0  0  0  0  0
   21.4413  -26.5752   -3.4824 H   0  0  0  0  0  0  0  0  0  0  0  0
   22.9615  -27.5317   -3.5180 H   0  0  0  0  0  0  0  0  0  0  0  0
   24.1640  -25.6566   -4.5575 H   0  0  0  0  0  0  0  0  0  0  0  0
   22.6437  -24.7062   -4.6702 H   0  0  0  0  0  0  0  0  0  0  0  0
   21.3466  -24.3855   -2.4142 H   0  0  0  0  0  0  0  0  0  0  0  0
   21.7067  -23.5381   -0.1102 H   0  0  0  0  0  0  0  0  0  0  0  0
   23.9662  -23.6221    0.9085 H   0  0  0  0  0  0  0  0  0  0  0  0
   25.8747  -24.5568   -0.3742 H   0  0  0  0  0  0  0  0  0  0  0  0
   26.1000  -24.8890   -3.4610 H   0  0  0  0  0  0  0  0  0  0  0  0
  1  2  1  0
  2  3  1  0
  3  4  1  0
  4  5  2  0
  5  6  1  0
  6  7  2  0
  7  8  1  0
  8  9  2  0
  9 10  1  0
  9  4  1  0
  1 11  1  0
  1 12  1  0
  1 13  1  0
  2 14  1  0
  2 15  1  0
  3 16  1  0
  3 17  1  0
  5 18  1  0
  6 19  1  0
  7 20  1  0
  8 21  1  0
 10 22  1  0
M  END
>  <meeko>  (5) 
{"is_sidechain": false}

$$$$

     RDKit          3D

 22 22  0  0  0  0  0  0  0  0999 V2000
   22.7470  -25.8040   -6.2510 C   0  0  0  0  0  0  0  0  0  0  0  0
   21.8050  -26.9420   -5.8510 C   0  0  0  0  0  0  0  0  0  0  0  0
   22.2860  -27.5650   -4.5400 C   0  0  0  0  0  0  0  0  0  0  0  0
   22.6050  -26.4740   -3.5510 C   0  0  0  0  0  0  0  0  0  0  0  0
   23.8420  -25.8600   -3.5720 C   0  0  0  0  0  0  0  0  0  0  0  0
   24.1330  -24.8580   -2.6650 C   0  0  0  0  0  0  0  0  0  0  0  0
   23.1890  -24.4690   -1.7340 C   0  0  0  0  0  0  0  0  0  0  0  0
   21.9490  -25.0790   -1.7090 C   0  0  0  0  0  0  0  0  0  0  0  0
   21.6540  -26.0840   -2.6170 C   0  0  0  0  0  0  0  0  0  0  0  0
   20.4360  -26.6850   -2.5950 O   0  0  0  0  0  0  0  0  0  0  0  0
   23.1455  -25.3226   -5.3458 H   0  0  0  0  0  0  0  0  0  0  0  0
   23.5781  -26.2085   -6.8474 H   0  0  0  0  0  0  0  0  0  0  0  0
   22.1944  -25.0631   -6.8474 H   0  0  0  0  0  0  0  0  0  0  0  0
   20.7876  -26.5459   -5.7171 H   0  0  0  0  0  0  0  0  0  0  0  0
   21.7994  -27.7079   -6.6405 H   0  0  0  0  0  0  0  0  0  0  0  0
   21.4961  -28.2116   -4.1301 H   0  0  0  0  0  0  0  0  0  0  0  0
   23.1895  -28.1634   -4.7289 H   0  0  0  0  0  0  0  0  0  0  0  0
   24.5962  -26.1685   -4.3109 H   0  0  0  0  0  0  0  0  0  0  0  0
   25.1183  -24.3693   -2.6846 H   0  0  0  0  0  0  0  0  0  0  0  0
   23.4246  -23.6731   -1.0121 H   0  0  0  0  0  0  0  0  0  0  0  0
   21.1969  -24.7673   -0.9693 H   0  0  0  0  0  0  0  0  0  0  0  0
   20.0390  -26.8060   -3.4680 H   0  0  0  0  0  0  0  0  0  0  0  0
  1  2  1  0
  2  3  1  0
  3  4  1  0
  4  5  2  0
  5  6  1  0
  6  7  2  0
  7  8  1  0
  8  9  2  0
  9 10  1  0
  9  4  1  0
  1 11  1  0
  1 12  1  0
  1 13  1  0
  2 14  1  0
  2 15  1  0
  3 16  1  0
  3 17  1  0
  5 18  1  0
  6 19  1  0
  7 20  1  0
  8 21  1  0
 10 22  1  0
M  END
>  <meeko>  (6) 
{"is_sidechain": false}

$$$$

     RDKit          3D

 22 22  0  0  0  0  0  0  0  0999 V2000
   31.2050  -31.9660   -0.0250 C   0  0  0  0  0  0  0  0  0  0  0  0
   29.9080  -32.7000    0.3210 C   0  0  0  0  0  0  0  0  0  0  0  0
   28.7210  -31.7540    0.1320 C   0  0  0  0  0  0  0  0  0  0  0  0
   27.4400  -32.5480    0.1480 C   0  0  0  0  0  0  0  0  0  0  0  0
   27.1200  -33.3680   -0.9170 C   0  0  0  0  0  0  0  0  0  0  0  0
   25.9450  -34.0950   -0.9020 C   0  0  0  0  0  0  0  0  0  0  0  0
   25.0860  -34.0030    0.1770 C   0  0  0  0  0  0  0  0  0  0  0  0
   25.4000  -33.1860    1.2450 C   0  0  0  0  0  0  0  0  0  0  0  0
   26.5780  -32.4540    1.2320 C   0  0  0  0  0  0  0  0  0  0  0  0
   26.8900  -31.6490    2.2810 O   0  0  0  0  0  0  0  0  0  0  0  0
   31.7200  -31.6746    0.9023 H   0  0  0  0  0  0  0  0  0  0  0  0
   31.8561  -32.6295   -0.6130 H   0  0  0  0  0  0  0  0  0  0  0  0
   30.9714  -31.0662   -0.6130 H   0  0  0  0  0  0  0  0  0  0  0  0
   29.7918  -33.5709   -0.3408 H   0  0  0  0  0  0  0  0  0  0  0  0
   29.9453  -33.0371    1.3674 H   0  0  0  0  0  0  0  0  0  0  0  0
   28.7059  -31.0167    0.9482 H   0  0  0  0  0  0  0  0  0  0  0  0
   28.8174  -31.2318   -0.8313 H   0  0  0  0  0  0  0  0  0  0  0  0
   27.8012  -33.4422   -1.7775 H   0  0  0  0  0  0  0  0  0  0  0  0
   25.6927  -34.7482   -1.7504 H   0  0  0  0  0  0  0  0  0  0  0  0
   24.1505  -34.5817    0.1849 H   0  0  0  0  0  0  0  0  0  0  0  0
   24.7171  -33.1158    2.1045 H   0  0  0  0  0  0  0  0  0  0  0  0
   27.0490  -30.7270    2.0360 H   0  0  0  0  0  0  0  0  0  0  0  0
  1  2  1  0
  2  3  1  0
  3  4  1  0
  4  5  2  0
  5  6  1  0
  6  7  2  0
  7  8  1  0
  8  9  2  0
  9 10  1  0
  9  4  1  0
  1 11  1  0
  1 12  1  0
  1 13  1  0
  2 14  1  0
  2 15  1  0
  3 16  1  0
  3 17  1  0
  5 18  1  0
  6 19  1  0
  7 20  1  0
  8 21  1  0
 10 22  1  0
M  END
>  <meeko>  (7) 
{"is_sidechain": false}

$$$$

     RDKit          3D

 22 22  0  0  0  0  0  0  0  0999 V2000
   19.6850  -27.0610   -1.5490 C   0  0  0  0  0  0  0  0  0  0  0  0
   20.6890  -25.9430   -1.8340 C   0  0  0  0  0  0  0  0  0  0  0  0
   22.0550  -26.5530   -2.1550 C   0  0  0  0  0  0  0  0  0  0  0  0
   22.3390  -26.4000   -3.6270 C   0  0  0  0  0  0  0  0  0  0  0  0
   21.8120  -27.3010   -4.5320 C   0  0  0  0  0  0  0  0  0  0  0  0
   22.0730  -27.1600   -5.8820 C   0  0  0  0  0  0  0  0  0  0  0  0
   22.8640  -26.1190   -6.3300 C   0  0  0  0  0  0  0  0  0  0  0  0
   23.3940  -25.2140   -5.4310 C   0  0  0  0  0  0  0  0  0  0  0  0
   23.1330  -25.3530   -4.0760 C   0  0  0  0  0  0  0  0  0  0  0  0
   23.6540  -24.4660   -3.1880 O   0  0  0  0  0  0  0  0  0  0  0  0
   19.5734  -27.1852   -0.4617 H   0  0  0  0  0  0  0  0  0  0  0  0
   18.7115  -26.8008   -1.9901 H   0  0  0  0  0  0  0  0  0  0  0  0
   20.0480  -28.0010   -1.9901 H   0  0  0  0  0  0  0  0  0  0  0  0
   20.3421  -25.3488   -2.6922 H   0  0  0  0  0  0  0  0  0  0  0  0
   20.7760  -25.2945   -0.9498 H   0  0  0  0  0  0  0  0  0  0  0  0
   22.8334  -26.0351   -1.5754 H   0  0  0  0  0  0  0  0  0  0  0  0
   22.0514  -27.6208   -1.8909 H   0  0  0  0  0  0  0  0  0  0  0  0
   21.1839  -28.1317   -4.1778 H   0  0  0  0  0  0  0  0  0  0  0  0
   21.6505  -27.8774   -6.6009 H   0  0  0  0  0  0  0  0  0  0  0  0
   23.0720  -26.0109   -7.4047 H   0  0  0  0  0  0  0  0  0  0  0  0
   24.0218  -24.3848   -5.7891 H   0  0  0  0  0  0  0  0  0  0  0  0
   23.5990  -24.7520   -2.2660 H   0  0  0  0  0  0  0  0  0  0  0  0
  1  2  1  0
  2  3  1  0
  3  4  1  0
  4  5  2  0
  5  6  1  0
  6  7  2  0
  7  8  1  0
  8  9  2  0
  9 10  1  0
  9  4  1  0
  1 11  1  0
  1 12  1  0
  1 13  1  0
  2 14  1  0
  2 15  1  0
  3 16  1  0
  3 17  1  0
  5 18  1  0
  6 19  1  0
  7 20  1  0
  8 21  1  0
 10 22  1  0
M  END
>  <meeko>  (8) 
{"is_sidechain": false}

$$$$

     RDKit          3D

 22 22  0  0  0  0  0  0  0  0999 V2000
   19.7000  -26.7650   -2.1580 C   0  0  0  0  0  0  0  0  0  0  0  0
   20.9270  -26.0250   -1.6220 C   0  0  0  0  0  0  0  0  0  0  0  0
   22.1970  -26.7060   -2.1350 C   0  0  0  0  0  0  0  0  0  0  0  0
   22.5070  -26.2120   -3.5240 C   0  0  0  0  0  0  0  0  0  0  0  0
   22.9680  -24.9230   -3.7130 C   0  0  0  0  0  0  0  0  0  0  0  0
   23.2520  -24.4700   -4.9880 C   0  0  0  0  0  0  0  0  0  0  0  0
   23.0750  -25.3030   -6.0760 C   0  0  0  0  0  0  0  0  0  0  0  0
   22.6150  -26.5930   -5.8930 C   0  0  0  0  0  0  0  0  0  0  0  0
   22.3290  -27.0500   -4.6160 C   0  0  0  0  0  0  0  0  0  0  0  0
   21.8760  -28.3180   -4.4330 O   0  0  0  0  0  0  0  0  0  0  0  0
   19.0948  -27.1300   -1.3151 H   0  0  0  0  0  0  0  0  0  0  0  0
   19.0977  -26.0794   -2.7721 H   0  0  0  0  0  0  0  0  0  0  0  0
   20.0253  -27.6176   -2.7721 H   0  0  0  0  0  0  0  0  0  0  0  0
   20.9055  -24.9809   -1.9676 H   0  0  0  0  0  0  0  0  0  0  0  0
   20.9174  -26.0473   -0.5223 H   0  0  0  0  0  0  0  0  0  0  0  0
   23.0366  -26.4678   -1.4654 H   0  0  0  0  0  0  0  0  0  0  0  0
   22.0443  -27.7951   -2.1593 H   0  0  0  0  0  0  0  0  0  0  0  0
   23.1090  -24.2572   -2.8488 H   0  0  0  0  0  0  0  0  0  0  0  0
   23.6197  -23.4440   -5.1366 H   0  0  0  0  0  0  0  0  0  0  0  0
   23.3006  -24.9388   -7.0891 H   0  0  0  0  0  0  0  0  0  0  0  0
   22.4760  -27.2563   -6.7594 H   0  0  0  0  0  0  0  0  0  0  0  0
   22.2650  -28.9670   -5.0350 H   0  0  0  0  0  0  0  0  0  0  0  0
  1  2  1  0
  2  3  1  0
  3  4  1  0
  4  5  2  0
  5  6  1  0
  6  7  2  0
  7  8  1  0
  8  9  2  0
  9 10  1  0
  9  4  1  0
  1 11  1  0
  1 12  1  0
  1 13  1  0
  2 14  1  0
  2 15  1  0
  3 16  1  0
  3 17  1  0
  5 18  1  0
  6 19  1  0
  7 20  1  0
  8 21  1  0
 10 22  1  0
M  END
>  <meeko>  (9) 
{"is_sidechain": false}

$$$$
